I"Û/Users/Lili/Flatiron/Module%202/Week%204/labs/rails-dynamic-request-readme-web-051517/app/assets/javascripts/application.js?type=application/javascript&id=eb3e5d0c237496adf8b92df5e3d7bbb1ebc96acba6fa2ad5f3d1c50953dd22ef:ET