I"é/Users/Lili/Flatiron/Module%202/Week%204/labs/rails-dynamic-request-readme-web-051517/app/assets/javascripts/application.js?type=application/javascript&pipeline=self&id=11d61bc40a69fad3df937a81bad5ef3d72a0134c763e591a6b0fd8d6d90fbe8d:ET