I"Ü/Users/Lili/Flatiron/Module%202/Week%204/labs/rails-dynamic-request-readme-web-051517/app/assets/stylesheets/application.css?type=text/css&pipeline=self&id=83995d889b64900c12c28e1023acf9e134f656367707b2758e08f4292c296b87:ET