I"Î/Users/Lili/Flatiron/Module%202/Week%204/labs/rails-dynamic-request-readme-web-051517/app/assets/stylesheets/application.css?type=text/css&id=28d90f1e755a41b40bf94a02e204e9b04c6332648bc5d886dbae1f4411573e08:ET